crystal_ligand.pdb
 OpenBabel12192417223D

 45 47  0  0  1  0  0  0  0  0999 V2000
  119.5460  122.3460   88.9970 O   0  0  0  0  0  0  0  0  0  0  0  0
  120.6010  122.0000   88.1220 C   0  0  1  0  0  0  0  0  0  0  0  0
  120.8350  123.1330   87.1070 C   0  0  0  0  0  0  0  0  0  0  0  0
  119.6970  123.2610   86.1750 N   0  3  0  0  0  0  0  0  0  0  0  0
  119.7710  124.3890   85.2200 C   0  0  0  0  0  0  0  0  0  0  0  0
  118.4660  124.4490   84.4190 C   0  0  0  0  0  0  0  0  0  0  0  0
  120.9860  124.2820   84.2800 C   0  0  0  0  0  0  0  0  0  0  0  0
  121.8480  121.7210   88.9630 C   0  0  0  0  0  0  0  0  0  0  0  0
  122.8640  121.3640   88.0470 O   0  0  0  0  0  0  0  0  0  0  0  0
  124.1690  121.4190   88.4620 C   0  0  0  0  0  0  0  0  0  0  0  0
  124.5640  121.4360   89.8180 C   0  0  0  0  0  0  0  0  0  0  0  0
  125.9240  121.4590   90.1660 C   0  0  0  0  0  0  0  0  0  0  0  0
  126.9050  121.4930   89.1590 C   0  0  0  0  0  0  0  0  0  0  0  0
  126.5160  121.5130   87.8100 C   0  0  0  0  0  0  0  0  0  0  0  0
  125.1430  121.4690   87.4420 C   0  0  0  0  0  0  0  0  0  0  0  0
  127.2840  121.5840   86.6560 N   0  0  0  0  0  0  0  0  0  0  0  0
  126.4390  121.6360   85.5550 C   0  0  0  0  0  0  0  0  0  0  0  0
  125.0930  121.5350   86.0070 C   0  0  0  0  0  0  0  0  0  0  0  0
  126.7340  121.7720   84.1850 C   0  0  0  0  0  0  0  0  0  0  0  0
  125.6860  121.8000   83.2450 C   0  0  0  0  0  0  0  0  0  0  0  0
  124.3520  121.6810   83.6720 C   0  0  0  0  0  0  0  0  0  0  0  0
  124.0610  121.5510   85.0410 C   0  0  0  0  0  0  0  0  0  0  0  0
  119.8570  123.0110   89.5930 H   0  0  0  0  0  0  0  0  0  0  0  0
  120.3390  121.0870   87.5880 H   0  0  0  0  0  0  0  0  0  0  0  0
  121.7240  122.9140   86.5200 H   0  0  0  0  0  0  0  0  0  0  0  0
  121.0320  124.0770   87.6090 H   0  0  0  0  0  0  0  0  0  0  0  0
  118.8620  123.3800   86.7320 H   0  0  0  0  0  0  0  0  0  0  0  0
  119.5990  122.3960   85.6610 H   0  0  0  0  0  0  0  0  0  0  0  0
  119.8610  125.3120   85.7940 H   0  0  0  0  0  0  0  0  0  0  0  0
  118.4620  125.2920   83.7280 H   0  0  0  0  0  0  0  0  0  0  0  0
  118.3180  123.5420   83.8320 H   0  0  0  0  0  0  0  0  0  0  0  0
  117.6050  124.5590   85.0780 H   0  0  0  0  0  0  0  0  0  0  0  0
  120.9700  125.0800   83.5370 H   0  0  0  0  0  0  0  0  0  0  0  0
  121.9290  124.3750   84.8180 H   0  0  0  0  0  0  0  0  0  0  0  0
  120.9940  123.3320   83.7440 H   0  0  0  0  0  0  0  0  0  0  0  0
  121.6700  120.8970   89.6550 H   0  0  0  0  0  0  0  0  0  0  0  0
  122.1180  122.6090   89.5380 H   0  0  0  0  0  0  0  0  0  0  0  0
  123.8320  121.4010   90.6030 H   0  0  0  0  0  0  0  0  0  0  0  0
  126.2090  121.4360   91.2050 H   0  0  0  0  0  0  0  0  0  0  0  0
  127.9520  121.5230   89.4150 H   0  0  0  0  0  0  0  0  0  0  0  0
  128.2900  121.6850   86.6380 H   0  0  0  0  0  0  0  0  0  0  0  0
  127.7580  121.8670   83.8590 H   0  0  0  0  0  0  0  0  0  0  0  0
  125.8910  121.9140   82.1930 H   0  0  0  0  0  0  0  0  0  0  0  0
  123.5500  121.6960   82.9480 H   0  0  0  0  0  0  0  0  0  0  0  0
  123.0340  121.4720   85.3580 H   0  0  0  0  0  0  0  0  0  0  0  0
  1 23  1  0  0  0  0
  2 24  1  6  0  0  0
  2  8  1  0  0  0  0
  2  1  1  0  0  0  0
  3 26  1  0  0  0  0
  3  2  1  0  0  0  0
  4 27  1  0  0  0  0
  4  3  1  0  0  0  0
  5 29  1  0  0  0  0
  5  4  1  0  0  0  0
  6 32  1  0  0  0  0
  6  5  1  0  0  0  0
  7 34  1  0  0  0  0
  7  5  1  0  0  0  0
  8 37  1  0  0  0  0
  8 36  1  0  0  0  0
  9 10  1  0  0  0  0
  9  8  1  0  0  0  0
 10 11  2  0  0  0  0
 11 12  1  0  0  0  0
 11 38  1  0  0  0  0
 12 39  1  0  0  0  0
 13 40  1  0  0  0  0
 13 12  2  0  0  0  0
 14 13  1  0  0  0  0
 15 14  2  0  0  0  0
 15 10  1  0  0  0  0
 16 14  1  0  0  0  0
 17 18  2  0  0  0  0
 17 16  1  0  0  0  0
 18 15  1  0  0  0  0
 19 17  1  0  0  0  0
 20 21  1  0  0  0  0
 20 19  2  0  0  0  0
 21 22  2  0  0  0  0
 22 45  1  0  0  0  0
 22 18  1  0  0  0  0
 25  3  1  0  0  0  0
 28  4  1  0  0  0  0
 30  6  1  0  0  0  0
 31  6  1  0  0  0  0
 33  7  1  0  0  0  0
 35  7  1  0  0  0  0
 41 16  1  0  0  0  0
 42 19  1  0  0  0  0
 43 20  1  0  0  0  0
 44 21  1  0  0  0  0
M  CHG  1   4   1
M  END
$$$$
